1,2-dimethoxyethane conformer 1
     RDKit          3D

 16 15  0  0  0  0  0  0  0  0999 V2000
    2.9438    0.5719    0.1489 C   0  0  0  0  0  0  0  0  0  0  0  0
    1.5706    0.8670   -0.0700 O   0  0  0  0  0  0  0  0  0  0  0  0
    0.7290   -0.1816    0.4094 C   0  0  0  0  0  0  0  0  0  0  0  0
   -0.7290    0.1816    0.1521 C   0  0  0  0  0  0  0  0  0  0  0  0
   -1.5706   -0.8670    0.6316 O   0  0  0  0  0  0  0  0  0  0  0  0
   -2.9438   -0.5719    0.4126 C   0  0  0  0  0  0  0  0  0  0  0  0
    3.2299   -0.3393   -0.3854 H   0  0  0  0  0  0  0  0  0  0  0  0
    3.1463    0.4615    1.2186 H   0  0  0  0  0  0  0  0  0  0  0  0
    3.5402    1.4037   -0.2353 H   0  0  0  0  0  0  0  0  0  0  0  0
    0.8903   -0.3316    1.4838 H   0  0  0  0  0  0  0  0  0  0  0  0
    0.9729   -1.1218   -0.0997 H   0  0  0  0  0  0  0  0  0  0  0  0
   -0.8903    0.3316   -0.9222 H   0  0  0  0  0  0  0  0  0  0  0  0
   -0.9729    1.1218    0.6613 H   0  0  0  0  0  0  0  0  0  0  0  0
   -3.2299    0.3392    0.9470 H   0  0  0  0  0  0  0  0  0  0  0  0
   -3.5402   -1.4038    0.7967 H   0  0  0  0  0  0  0  0  0  0  0  0
   -3.1462   -0.4614   -0.6571 H   0  0  0  0  0  0  0  0  0  0  0  0
  1  2  1  0
  2  3  1  0
  3  4  1  0
  4  5  1  0
  5  6  1  0
  1  7  1  0
  1  8  1  0
  1  9  1  0
  3 10  1  0
  3 11  1  0
  4 12  1  0
  4 13  1  0
  6 14  1  0
  6 15  1  0
  6 16  1  0
M  END
>  <conformer_id>  (1)
1

>  <MMFF_relative_energy_kcal_mol>  (1)
0.000000

$$$$
1,2-dimethoxyethane conformer 2
     RDKit          3D

 16 15  0  0  0  0  0  0  0  0999 V2000
    2.3217    1.0369    0.6485 C   0  0  0  0  0  0  0  0  0  0  0  0
    1.0229    0.7903    0.1259 O   0  0  0  0  0  0  0  0  0  0  0  0
    0.7793   -0.6120   -0.0360 C   0  0  0  0  0  0  0  0  0  0  0  0
   -0.6406   -0.8352   -0.5622 C   0  0  0  0  0  0  0  0  0  0  0  0
   -1.6301   -0.8337    0.4739 O   0  0  0  0  0  0  0  0  0  0  0  0
   -1.8532    0.4539    1.0343 C   0  0  0  0  0  0  0  0  0  0  0  0
    3.0879    0.6490   -0.0296 H   0  0  0  0  0  0  0  0  0  0  0  0
    2.4285    0.5828    1.6383 H   0  0  0  0  0  0  0  0  0  0  0  0
    2.4545    2.1178    0.7444 H   0  0  0  0  0  0  0  0  0  0  0  0
    1.4994   -1.0020   -0.7638 H   0  0  0  0  0  0  0  0  0  0  0  0
    0.9138   -1.1201    0.9255 H   0  0  0  0  0  0  0  0  0  0  0  0
   -0.6906   -1.8295   -1.0180 H   0  0  0  0  0  0  0  0  0  0  0  0
   -0.9099   -0.0992   -1.3283 H   0  0  0  0  0  0  0  0  0  0  0  0
   -2.7476    0.3994    1.6612 H   0  0  0  0  0  0  0  0  0  0  0  0
   -2.0236    1.2008    0.2531 H   0  0  0  0  0  0  0  0  0  0  0  0
   -1.0153    0.7474    1.6718 H   0  0  0  0  0  0  0  0  0  0  0  0
  1  2  1  0
  2  3  1  0
  3  4  1  0
  4  5  1  0
  5  6  1  0
  1  7  1  0
  1  8  1  0
  1  9  1  0
  3 10  1  0
  3 11  1  0
  4 12  1  0
  4 13  1  0
  6 14  1  0
  6 15  1  0
  6 16  1  0
M  END
>  <conformer_id>  (2)
7

>  <MMFF_relative_energy_kcal_mol>  (2)
1.522318

$$$$
1,2-dimethoxyethane conformer 3
     RDKit          3D

 16 15  0  0  0  0  0  0  0  0999 V2000
    2.7819    0.6797    0.5468 C   0  0  0  0  0  0  0  0  0  0  0  0
    1.5473    0.7508   -0.1542 O   0  0  0  0  0  0  0  0  0  0  0  0
    0.5706   -0.1218    0.4140 C   0  0  0  0  0  0  0  0  0  0  0  0
   -0.7171   -0.0394   -0.4035 C   0  0  0  0  0  0  0  0  0  0  0  0
   -1.7277   -0.9147    0.0981 O   0  0  0  0  0  0  0  0  0  0  0  0
   -2.4550   -0.3546    1.1833 C   0  0  0  0  0  0  0  0  0  0  0  0
    3.1935   -0.3329    0.4960 H   0  0  0  0  0  0  0  0  0  0  0  0
    3.4871    1.3675    0.0727 H   0  0  0  0  0  0  0  0  0  0  0  0
    2.6479    0.9807    1.5903 H   0  0  0  0  0  0  0  0  0  0  0  0
    0.3847    0.1671    1.4541 H   0  0  0  0  0  0  0  0  0  0  0  0
    0.9407   -1.1541    0.4151 H   0  0  0  0  0  0  0  0  0  0  0  0
   -0.5015   -0.3462   -1.4334 H   0  0  0  0  0  0  0  0  0  0  0  0
   -1.0844    0.9924   -0.4660 H   0  0  0  0  0  0  0  0  0  0  0  0
   -2.9496    0.5720    0.8764 H   0  0  0  0  0  0  0  0  0  0  0  0
   -1.8012   -0.1677    2.0392 H   0  0  0  0  0  0  0  0  0  0  0  0
   -3.2223   -1.0721    1.4866 H   0  0  0  0  0  0  0  0  0  0  0  0
  1  2  1  0
  2  3  1  0
  3  4  1  0
  4  5  1  0
  5  6  1  0
  1  7  1  0
  1  8  1  0
  1  9  1  0
  3 10  1  0
  3 11  1  0
  4 12  1  0
  4 13  1  0
  6 14  1  0
  6 15  1  0
  6 16  1  0
M  END
>  <conformer_id>  (3)
4

>  <MMFF_relative_energy_kcal_mol>  (3)
1.845913

$$$$
